Circuit: * F:\ENG. RIYAD\Ref\Ref Codes\Riyad_Complete_Codes\ATMEGA32A\Solar Auto Switcher\Solar Heater Control\PlatformIO\Solar_Heater_Control\SHC.asc

Direct Newton iteration for .op point succeeded.

Date: Mon Dec 18 13:43:50 2023
Total elapsed time: 0.982 seconds.

tnom = 27
temp = 27
method = modified trap
totiter = 123998
traniter = 123966
tranpoints = 38400
accept = 28666
rejected = 9734
matrix size = 63
fillins = 54
solver = Normal
Matrix Compiler1: 5.00 KB object code size  1.2/0.8/[0.3]
Matrix Compiler2: 5.26 KB object code size  0.5/0.9/[0.3]

