Circuit: * F:\ENG. RIYAD\Ref\Ref Codes\Riyad_Complete_Codes\ATMEGA32A\Solar Auto Switcher\Solar Heater Control\PlatformIO\Solar_Heater_Control\SHC.asc

Direct Newton iteration for .op point succeeded.

Date: Mon Dec 18 10:23:22 2023
Total elapsed time: 1.076 seconds.

tnom = 27
temp = 27
method = modified trap
totiter = 128900
traniter = 128868
tranpoints = 39305
accept = 29149
rejected = 10156
matrix size = 63
fillins = 54
solver = Normal
Matrix Compiler1: 5.00 KB object code size  2.2/0.8/[0.3]
Matrix Compiler2: 5.26 KB object code size  0.5/1.2/[0.4]

